216
BTBT_9
S    1.6203193262720827    0.9333401805326346    -0.9655543417648225
S    -1.620321504598735    -0.9333388825699676    0.9655526072710489
C    0.7607010874676289    0.43204661397155997    -3.5964890672963397
C    -0.19901452334363057    -0.09708117976364095    -4.456605143989376
C    -1.3358730483939008    -0.7617409166445286    -3.9518894628529058
C    -1.5484008838449876    -0.8661903563930526    -2.58171320689255
C    1.548398109335089    0.866196593028477    2.5817133719708383
C    1.3358706775561753    0.7617432743645128    3.951889267098004
C    0.19901582998282433    0.09707763412375259    4.456605564507998
C    -0.7606973501029619    -0.43205502481048846    3.5964887592424986
C    -0.5418750743386082    -0.34671555743923627    2.213672213873291
C    0.5874862400967746    0.34629270790787875    1.6917199634307594
C    0.5677107081262889    0.30358960446563144    0.26293046084319327
C    -0.5677107915495075    -0.3035871418589736    -0.26293027984204415
C    -0.5874867399029438    -0.3462921765045876    -1.6917195197701054
C    0.5418798052269354    0.346711324999707    -2.213671057369623
H    1.6351619757370348    0.9441051054692121    -3.989241924895111
H    -2.069015814970823    -1.16856644084711    -4.6425298943736735
H    -2.423263223742232    -1.3822247760329835    -2.1937042880785897
H    2.4232592384643064    1.3822352091162877    2.193705084027483
H    2.069008168232779    1.1685767873482058    4.642530177164096
H    0.048937735877673236    0.028246412732371825    5.530313340218296
H    -1.6351576368485852    -0.9441151195158152    3.989239611204613
H    -0.048932311065960375    -0.028253874871953768    -5.530312232923615
S     1.6203193262720827     8.983340180532634     -0.9655543417648225
S     1.304680673727917     4.958340180532634     -0.9655543417648225
S     1.304680673727917     -3.091659819467365     -0.9655543417648225
S     1.6203193262720827     -7.1166598194673645     -0.9655543417648225
S     -4.545319326272082     -3.091659819467365     -0.9655543417648225
S     -4.545319326272082     4.958340180532634     -0.9655543417648225
S     7.470319326272082     0.9333401805326346     -0.9655543417648225
S     -4.229680673727917     0.9333401805326346     -0.9655543417648225
S     -1.620321504598735     7.116661117430032     0.9655526072710489
S     4.545321504598735     3.091661117430032     0.9655526072710489
S     4.545321504598735     -4.958338882569967     0.9655526072710489
S     -1.620321504598735     -8.983338882569967     0.9655526072710489
S     -1.304678495401265     -4.958338882569967     0.9655526072710489
S     -1.304678495401265     3.091661117430032     0.9655526072710489
S     4.229678495401265     -0.9333388825699676     0.9655526072710489
S     -7.470321504598735     -0.9333388825699676     0.9655526072710489
C     0.7607010874676289     8.482046613971558     -3.5964890672963397
C     2.164298912532371     4.45704661397156     -3.5964890672963397
C     2.164298912532371     -3.5929533860284395     -3.5964890672963397
C     0.7607010874676289     -7.617953386028439     -3.5964890672963397
C     -3.6857010874676286     -3.5929533860284395     -3.5964890672963397
C     -3.6857010874676286     4.45704661397156     -3.5964890672963397
C     6.610701087467628     0.43204661397155997     -3.5964890672963397
C     -5.089298912532371     0.43204661397155997     -3.5964890672963397
C     -0.19901452334363057     7.952918820236358     -4.456605143989376
C     3.1240145233436305     3.9279188202363584     -4.456605143989376
C     3.1240145233436305     -4.12208117976364     -4.456605143989376
C     -0.19901452334363057     -8.14708117976364     -4.456605143989376
C     -2.725985476656369     -4.12208117976364     -4.456605143989376
C     -2.725985476656369     3.9279188202363584     -4.456605143989376
C     5.650985476656369     -0.09708117976364095     -4.456605143989376
C     -6.04901452334363     -0.09708117976364095     -4.456605143989376
C     -1.3358730483939008     7.28825908335547     -3.9518894628529058
C     4.260873048393901     3.2632590833554707     -3.9518894628529058
C     4.260873048393901     -4.786740916644528     -3.9518894628529058
C     -1.3358730483939008     -8.811740916644528     -3.9518894628529058
C     -1.589126951606099     -4.786740916644528     -3.9518894628529058
C     -1.589126951606099     3.2632590833554707     -3.9518894628529058
C     4.514126951606099     -0.7617409166445286     -3.9518894628529058
C     -7.1858730483939     -0.7617409166445286     -3.9518894628529058
C     -1.5484008838449876     7.1838096436069465     -2.58171320689255
C     4.473400883844987     3.158809643606947     -2.58171320689255
C     4.473400883844987     -4.891190356393052     -2.58171320689255
C     -1.5484008838449876     -8.916190356393052     -2.58171320689255
C     -1.3765991161550122     -4.891190356393052     -2.58171320689255
C     -1.3765991161550122     3.158809643606947     -2.58171320689255
C     4.301599116155012     -0.8661903563930526     -2.58171320689255
C     -7.398400883844987     -0.8661903563930526     -2.58171320689255
C     1.548398109335089     8.916196593028475     2.5817133719708383
C     1.376601890664911     4.891196593028477     2.5817133719708383
C     1.376601890664911     -3.1588034069715225     2.5817133719708383
C     1.548398109335089     -7.183803406971522     2.5817133719708383
C     -4.473398109335089     -3.1588034069715225     2.5817133719708383
C     -4.473398109335089     4.891196593028477     2.5817133719708383
C     7.398398109335089     0.866196593028477     2.5817133719708383
C     -4.3016018906649105     0.866196593028477     2.5817133719708383
C     1.3358706775561753     8.811743274364511     3.951889267098004
C     1.5891293224438245     4.786743274364512     3.951889267098004
C     1.5891293224438245     -3.2632567256354865     3.951889267098004
C     1.3358706775561753     -7.288256725635486     3.951889267098004
C     -4.260870677556175     -3.2632567256354865     3.951889267098004
C     -4.260870677556175     4.786743274364512     3.951889267098004
C     7.185870677556175     0.7617432743645128     3.951889267098004
C     -4.514129322443824     0.7617432743645128     3.951889267098004
C     0.19901582998282433     8.147077634123752     4.456605564507998
C     2.7259841700171754     4.122077634123752     4.456605564507998
C     2.7259841700171754     -3.9279223658762468     4.456605564507998
C     0.19901582998282433     -7.952922365876247     4.456605564507998
C     -3.1240158299828242     -3.9279223658762468     4.456605564507998
C     -3.1240158299828242     4.122077634123752     4.456605564507998
C     6.049015829982824     0.09707763412375259     4.456605564507998
C     -5.650984170017176     0.09707763412375259     4.456605564507998
C     -0.7606973501029619     7.61794497518951     3.5964887592424986
C     3.685697350102962     3.592944975189511     3.5964887592424986
C     3.685697350102962     -4.457055024810488     3.5964887592424986
C     -0.7606973501029619     -8.482055024810487     3.5964887592424986
C     -2.1643026498970377     -4.457055024810488     3.5964887592424986
C     -2.1643026498970377     3.592944975189511     3.5964887592424986
C     5.0893026498970375     -0.43205502481048846     3.5964887592424986
C     -6.610697350102962     -0.43205502481048846     3.5964887592424986
C     -0.5418750743386082     7.703284442560762     2.213672213873291
C     3.466875074338608     3.6782844425607633     2.213672213873291
C     3.466875074338608     -4.371715557439236     2.213672213873291
C     -0.5418750743386082     -8.396715557439235     2.213672213873291
C     -2.3831249256613916     -4.371715557439236     2.213672213873291
C     -2.3831249256613916     3.6782844425607633     2.213672213873291
C     5.308124925661391     -0.34671555743923627     2.213672213873291
C     -6.391875074338608     -0.34671555743923627     2.213672213873291
C     0.5874862400967746     8.396292707907877     1.6917199634307594
C     2.337513759903225     4.3712927079078785     1.6917199634307594
C     2.337513759903225     -3.678707292092121     1.6917199634307594
C     0.5874862400967746     -7.70370729209212     1.6917199634307594
C     -3.5124862400967745     -3.678707292092121     1.6917199634307594
C     -3.5124862400967745     4.3712927079078785     1.6917199634307594
C     6.437486240096774     0.34629270790787875     1.6917199634307594
C     -5.262513759903225     0.34629270790787875     1.6917199634307594
C     0.5677107081262889     8.35358960446563     0.26293046084319327
C     2.3572892918737107     4.3285896044656305     0.26293046084319327
C     2.3572892918737107     -3.721410395534368     0.26293046084319327
C     0.5677107081262889     -7.746410395534367     0.26293046084319327
C     -3.492710708126289     -3.721410395534368     0.26293046084319327
C     -3.492710708126289     4.3285896044656305     0.26293046084319327
C     6.417710708126289     0.30358960446563144     0.26293046084319327
C     -5.2822892918737105     0.30358960446563144     0.26293046084319327
C     -0.5677107915495075     7.746412858141025     -0.26293027984204415
C     3.4927107915495075     3.7214128581410257     -0.26293027984204415
C     3.4927107915495075     -4.328587141858973     -0.26293027984204415
C     -0.5677107915495075     -8.353587141858972     -0.26293027984204415
C     -2.357289208450492     -4.328587141858973     -0.26293027984204415
C     -2.357289208450492     3.7214128581410257     -0.26293027984204415
C     5.282289208450492     -0.3035871418589736     -0.26293027984204415
C     -6.417710791549507     -0.3035871418589736     -0.26293027984204415
C     -0.5874867399029438     7.703707823495411     -1.6917195197701054
C     3.5124867399029434     3.678707823495412     -1.6917195197701054
C     3.5124867399029434     -4.371292176504587     -1.6917195197701054
C     -0.5874867399029438     -8.396292176504586     -1.6917195197701054
C     -2.3375132600970563     -4.371292176504587     -1.6917195197701054
C     -2.3375132600970563     3.678707823495412     -1.6917195197701054
C     5.262513260097056     -0.3462921765045876     -1.6917195197701054
C     -6.437486739902943     -0.3462921765045876     -1.6917195197701054
C     0.5418798052269354     8.396711324999705     -2.213671057369623
C     2.3831201947730642     4.371711324999707     -2.213671057369623
C     2.3831201947730642     -3.6782886750002923     -2.213671057369623
C     0.5418798052269354     -7.703288675000292     -2.213671057369623
C     -3.4668798052269354     -3.6782886750002923     -2.213671057369623
C     -3.4668798052269354     4.371711324999707     -2.213671057369623
C     6.391879805226935     0.346711324999707     -2.213671057369623
C     -5.308120194773064     0.346711324999707     -2.213671057369623
H     1.6351619757370348     8.994105105469211     -3.989241924895111
H     1.289838024262965     4.969105105469212     -3.989241924895111
H     1.289838024262965     -3.0808948945307875     -3.989241924895111
H     1.6351619757370348     -7.1058948945307865     -3.989241924895111
H     -4.560161975737035     -3.0808948945307875     -3.989241924895111
H     -4.560161975737035     4.969105105469212     -3.989241924895111
H     7.485161975737034     0.9441051054692121     -3.989241924895111
H     -4.214838024262965     0.9441051054692121     -3.989241924895111
H     -2.069015814970823     6.881433559152889     -4.6425298943736735
H     4.9940158149708225     2.8564335591528893     -4.6425298943736735
H     4.9940158149708225     -5.19356644084711     -4.6425298943736735
H     -2.069015814970823     -9.218566440847109     -4.6425298943736735
H     -0.8559841850291767     -5.19356644084711     -4.6425298943736735
H     -0.8559841850291767     2.8564335591528893     -4.6425298943736735
H     3.7809841850291765     -1.16856644084711     -4.6425298943736735
H     -7.919015814970823     -1.16856644084711     -4.6425298943736735
H     -2.423263223742232     6.667775223967015     -2.1937042880785897
H     5.348263223742231     2.642775223967016     -2.1937042880785897
H     5.348263223742231     -5.407224776032983     -2.1937042880785897
H     -2.423263223742232     -9.432224776032982     -2.1937042880785897
H     -0.501736776257768     -5.407224776032983     -2.1937042880785897
H     -0.501736776257768     2.642775223967016     -2.1937042880785897
H     3.426736776257768     -1.3822247760329835     -2.1937042880785897
H     -8.273263223742232     -1.3822247760329835     -2.1937042880785897
H     2.4232592384643064     9.432235209116287     2.193705084027483
H     0.5017407615356935     5.407235209116287     2.193705084027483
H     0.5017407615356935     -2.642764790883712     2.193705084027483
H     2.4232592384643064     -6.667764790883711     2.193705084027483
H     -5.348259238464307     -2.642764790883712     2.193705084027483
H     -5.348259238464307     5.407235209116287     2.193705084027483
H     8.273259238464306     1.3822352091162877     2.193705084027483
H     -3.4267407615356933     1.3822352091162877     2.193705084027483
H     2.069008168232779     9.218576787348205     4.642530177164096
H     0.8559918317672208     5.1935767873482055     4.642530177164096
H     0.8559918317672208     -2.8564232126517934     4.642530177164096
H     2.069008168232779     -6.881423212651793     4.642530177164096
H     -4.994008168232779     -2.8564232126517934     4.642530177164096
H     -4.994008168232779     5.1935767873482055     4.642530177164096
H     7.919008168232779     1.1685767873482058     4.642530177164096
H     -3.7809918317672206     1.1685767873482058     4.642530177164096
H     0.048937735877673236     8.078246412732371     5.530313340218296
H     2.876062264122327     4.0532464127323715     5.530313340218296
H     2.876062264122327     -3.996753587267628     5.530313340218296
H     0.048937735877673236     -8.021753587267627     5.530313340218296
H     -2.973937735877673     -3.996753587267628     5.530313340218296
H     -2.973937735877673     4.0532464127323715     5.530313340218296
H     5.898937735877673     0.028246412732371825     5.530313340218296
H     -5.801062264122327     0.028246412732371825     5.530313340218296
H     -1.6351576368485852     7.105884880484184     3.989239611204613
H     4.560157636848585     3.0808848804841844     3.989239611204613
H     4.560157636848585     -4.9691151195158145     3.989239611204613
H     -1.6351576368485852     -8.994115119515815     3.989239611204613
H     -1.2898423631514147     -4.9691151195158145     3.989239611204613
H     -1.2898423631514147     3.0808848804841844     3.989239611204613
H     4.214842363151415     -0.9441151195158152     3.989239611204613
H     -7.485157636848585     -0.9441151195158152     3.989239611204613
H     -0.048932311065960375     8.021746125128045     -5.530312232923615
H     2.97393231106596     3.9967461251280456     -5.530312232923615
H     2.97393231106596     -4.053253874871953     -5.530312232923615
H     -0.048932311065960375     -8.078253874871953     -5.530312232923615
H     -2.8760676889340395     -4.053253874871953     -5.530312232923615
H     -2.8760676889340395     3.9967461251280456     -5.530312232923615
H     5.801067688934039     -0.028253874871953768     -5.530312232923615
H     -5.89893231106596     -0.028253874871953768     -5.530312232923615
