216
BTBT_9
S    1.6203193262720827    0.9333401805326346    -0.9655543417648225
S    -1.620321504598735    -0.9333388825699676    0.9655526072710489
C    0.7607010874676289    0.43204661397155997    -3.5964890672963397
C    -0.19901452334363057    -0.09708117976364095    -4.456605143989376
C    -1.3358730483939008    -0.7617409166445286    -3.9518894628529058
C    -1.5484008838449876    -0.8661903563930526    -2.58171320689255
C    1.548398109335089    0.866196593028477    2.5817133719708383
C    1.3358706775561753    0.7617432743645128    3.951889267098004
C    0.19901582998282433    0.09707763412375259    4.456605564507998
C    -0.7606973501029619    -0.43205502481048846    3.5964887592424986
C    -0.5418750743386082    -0.34671555743923627    2.213672213873291
C    0.5874862400967746    0.34629270790787875    1.6917199634307594
C    0.5677107081262889    0.30358960446563144    0.26293046084319327
C    -0.5677107915495075    -0.3035871418589736    -0.26293027984204415
C    -0.5874867399029438    -0.3462921765045876    -1.6917195197701054
C    0.5418798052269354    0.346711324999707    -2.213671057369623
H    1.6351619757370348    0.9441051054692121    -3.989241924895111
H    -2.069015814970823    -1.16856644084711    -4.6425298943736735
H    -2.423263223742232    -1.3822247760329835    -2.1937042880785897
H    2.4232592384643064    1.3822352091162877    2.193705084027483
H    2.069008168232779    1.1685767873482058    4.642530177164096
H    0.048937735877673236    0.028246412732371825    5.530313340218296
H    -1.6351576368485852    -0.9441151195158152    3.989239611204613
H    -0.048932311065960375    -0.028253874871953768    -5.530312232923615
S     1.6203193262720827     8.963340180532635     -0.9655543417648225
S     1.3296806737279174     4.948340180532634     -0.9655543417648225
S     1.3296806737279174     -3.0816598194673652     -0.9655543417648225
S     1.6203193262720827     -7.096659819467365     -0.9655543417648225
S     -4.570319326272083     -3.0816598194673652     -0.9655543417648225
S     -4.570319326272083     4.948340180532634     -0.9655543417648225
S     7.520319326272083     0.9333401805326346     -0.9655543417648225
S     -4.279680673727918     0.9333401805326346     -0.9655543417648225
S     -1.620321504598735     7.096661117430032     0.9655526072710489
S     4.570321504598735     3.0816611174300323     0.9655526072710489
S     4.570321504598735     -4.948338882569967     0.9655526072710489
S     -1.620321504598735     -8.963338882569968     0.9655526072710489
S     -1.3296784954012653     -4.948338882569967     0.9655526072710489
S     -1.3296784954012653     3.0816611174300323     0.9655526072710489
S     4.279678495401265     -0.9333388825699676     0.9655526072710489
S     -7.520321504598735     -0.9333388825699676     0.9655526072710489
C     0.7607010874676289     8.462046613971559     -3.5964890672963397
C     2.1892989125323714     4.44704661397156     -3.5964890672963397
C     2.1892989125323714     -3.5829533860284397     -3.5964890672963397
C     0.7607010874676289     -7.59795338602844     -3.5964890672963397
C     -3.710701087467629     -3.5829533860284397     -3.5964890672963397
C     -3.710701087467629     4.44704661397156     -3.5964890672963397
C     6.660701087467629     0.43204661397155997     -3.5964890672963397
C     -5.139298912532372     0.43204661397155997     -3.5964890672963397
C     -0.19901452334363057     7.932918820236359     -4.456605143989376
C     3.149014523343631     3.9179188202363586     -4.456605143989376
C     3.149014523343631     -4.11208117976364     -4.456605143989376
C     -0.19901452334363057     -8.12708117976364     -4.456605143989376
C     -2.7509854766563695     -4.11208117976364     -4.456605143989376
C     -2.7509854766563695     3.9179188202363586     -4.456605143989376
C     5.70098547665637     -0.09708117976364095     -4.456605143989376
C     -6.099014523343631     -0.09708117976364095     -4.456605143989376
C     -1.3358730483939008     7.2682590833554706     -3.9518894628529058
C     4.285873048393901     3.253259083355471     -3.9518894628529058
C     4.285873048393901     -4.7767409166445285     -3.9518894628529058
C     -1.3358730483939008     -8.791740916644528     -3.9518894628529058
C     -1.6141269516060994     -4.7767409166445285     -3.9518894628529058
C     -1.6141269516060994     3.253259083355471     -3.9518894628529058
C     4.5641269516061     -0.7617409166445286     -3.9518894628529058
C     -7.235873048393901     -0.7617409166445286     -3.9518894628529058
C     -1.5484008838449876     7.163809643606947     -2.58171320689255
C     4.498400883844988     3.1488096436069473     -2.58171320689255
C     4.498400883844988     -4.881190356393052     -2.58171320689255
C     -1.5484008838449876     -8.896190356393053     -2.58171320689255
C     -1.4015991161550125     -4.881190356393052     -2.58171320689255
C     -1.4015991161550125     3.1488096436069473     -2.58171320689255
C     4.351599116155013     -0.8661903563930526     -2.58171320689255
C     -7.448400883844988     -0.8661903563930526     -2.58171320689255
C     1.548398109335089     8.896196593028476     2.5817133719708383
C     1.4016018906649113     4.881196593028477     2.5817133719708383
C     1.4016018906649113     -3.1488034069715227     2.5817133719708383
C     1.548398109335089     -7.163803406971523     2.5817133719708383
C     -4.498398109335089     -3.1488034069715227     2.5817133719708383
C     -4.498398109335089     4.881196593028477     2.5817133719708383
C     7.4483981093350895     0.866196593028477     2.5817133719708383
C     -4.351601890664911     0.866196593028477     2.5817133719708383
C     1.3358706775561753     8.791743274364512     3.951889267098004
C     1.614129322443825     4.776743274364512     3.951889267098004
C     1.614129322443825     -3.2532567256354867     3.951889267098004
C     1.3358706775561753     -7.268256725635487     3.951889267098004
C     -4.285870677556176     -3.2532567256354867     3.951889267098004
C     -4.285870677556176     4.776743274364512     3.951889267098004
C     7.235870677556176     0.7617432743645128     3.951889267098004
C     -4.564129322443825     0.7617432743645128     3.951889267098004
C     0.19901582998282433     8.127077634123753     4.456605564507998
C     2.7509841700171758     4.112077634123752     4.456605564507998
C     2.7509841700171758     -3.917922365876247     4.456605564507998
C     0.19901582998282433     -7.932922365876247     4.456605564507998
C     -3.1490158299828246     -3.917922365876247     4.456605564507998
C     -3.1490158299828246     4.112077634123752     4.456605564507998
C     6.099015829982824     0.09707763412375259     4.456605564507998
C     -5.700984170017176     0.09707763412375259     4.456605564507998
C     -0.7606973501029619     7.5979449751895105     3.5964887592424986
C     3.7106973501029623     3.5829449751895113     3.5964887592424986
C     3.7106973501029623     -4.4470550248104885     3.5964887592424986
C     -0.7606973501029619     -8.462055024810487     3.5964887592424986
C     -2.189302649897038     -4.4470550248104885     3.5964887592424986
C     -2.189302649897038     3.5829449751895113     3.5964887592424986
C     5.139302649897038     -0.43205502481048846     3.5964887592424986
C     -6.6606973501029625     -0.43205502481048846     3.5964887592424986
C     -0.5418750743386082     7.683284442560763     2.213672213873291
C     3.4918750743386084     3.6682844425607635     2.213672213873291
C     3.4918750743386084     -4.361715557439236     2.213672213873291
C     -0.5418750743386082     -8.376715557439235     2.213672213873291
C     -2.408124925661392     -4.361715557439236     2.213672213873291
C     -2.408124925661392     3.6682844425607635     2.213672213873291
C     5.358124925661392     -0.34671555743923627     2.213672213873291
C     -6.441875074338609     -0.34671555743923627     2.213672213873291
C     0.5874862400967746     8.376292707907877     1.6917199634307594
C     2.3625137599032255     4.361292707907879     1.6917199634307594
C     2.3625137599032255     -3.668707292092121     1.6917199634307594
C     0.5874862400967746     -7.68370729209212     1.6917199634307594
C     -3.537486240096775     -3.668707292092121     1.6917199634307594
C     -3.537486240096775     4.361292707907879     1.6917199634307594
C     6.487486240096775     0.34629270790787875     1.6917199634307594
C     -5.312513759903226     0.34629270790787875     1.6917199634307594
C     0.5677107081262889     8.333589604465631     0.26293046084319327
C     2.382289291873711     4.318589604465631     0.26293046084319327
C     2.382289291873711     -3.7114103955343682     0.26293046084319327
C     0.5677107081262889     -7.7264103955343675     0.26293046084319327
C     -3.5177107081262893     -3.7114103955343682     0.26293046084319327
C     -3.5177107081262893     4.318589604465631     0.26293046084319327
C     6.4677107081262895     0.30358960446563144     0.26293046084319327
C     -5.332289291873711     0.30358960446563144     0.26293046084319327
C     -0.5677107915495075     7.726412858141026     -0.26293027984204415
C     3.517710791549508     3.711412858141026     -0.26293027984204415
C     3.517710791549508     -4.318587141858973     -0.26293027984204415
C     -0.5677107915495075     -8.333587141858972     -0.26293027984204415
C     -2.3822892084504925     -4.318587141858973     -0.26293027984204415
C     -2.3822892084504925     3.711412858141026     -0.26293027984204415
C     5.332289208450493     -0.3035871418589736     -0.26293027984204415
C     -6.467710791549508     -0.3035871418589736     -0.26293027984204415
C     -0.5874867399029438     7.6837078234954115     -1.6917195197701054
C     3.5374867399029437     3.6687078234954122     -1.6917195197701054
C     3.5374867399029437     -4.361292176504588     -1.6917195197701054
C     -0.5874867399029438     -8.376292176504586     -1.6917195197701054
C     -2.3625132600970566     -4.361292176504588     -1.6917195197701054
C     -2.3625132600970566     3.6687078234954122     -1.6917195197701054
C     5.312513260097057     -0.3462921765045876     -1.6917195197701054
C     -6.487486739902944     -0.3462921765045876     -1.6917195197701054
C     0.5418798052269354     8.376711324999706     -2.213671057369623
C     2.4081201947730646     4.361711324999707     -2.213671057369623
C     2.4081201947730646     -3.6682886750002925     -2.213671057369623
C     0.5418798052269354     -7.683288675000292     -2.213671057369623
C     -3.4918798052269358     -3.6682886750002925     -2.213671057369623
C     -3.4918798052269358     4.361711324999707     -2.213671057369623
C     6.441879805226936     0.346711324999707     -2.213671057369623
C     -5.358120194773065     0.346711324999707     -2.213671057369623
H     1.6351619757370348     8.974105105469212     -3.989241924895111
H     1.3148380242629654     4.959105105469212     -3.989241924895111
H     1.3148380242629654     -3.0708948945307877     -3.989241924895111
H     1.6351619757370348     -7.085894894530787     -3.989241924895111
H     -4.585161975737035     -3.0708948945307877     -3.989241924895111
H     -4.585161975737035     4.959105105469212     -3.989241924895111
H     7.535161975737035     0.9441051054692121     -3.989241924895111
H     -4.264838024262966     0.9441051054692121     -3.989241924895111
H     -2.069015814970823     6.861433559152889     -4.6425298943736735
H     5.019015814970823     2.8464335591528895     -4.6425298943736735
H     5.019015814970823     -5.18356644084711     -4.6425298943736735
H     -2.069015814970823     -9.19856644084711     -4.6425298943736735
H     -0.8809841850291771     -5.18356644084711     -4.6425298943736735
H     -0.8809841850291771     2.8464335591528895     -4.6425298943736735
H     3.8309841850291773     -1.16856644084711     -4.6425298943736735
H     -7.969015814970824     -1.16856644084711     -4.6425298943736735
H     -2.423263223742232     6.647775223967016     -2.1937042880785897
H     5.3732632237422315     2.632775223967016     -2.1937042880785897
H     5.3732632237422315     -5.397224776032983     -2.1937042880785897
H     -2.423263223742232     -9.412224776032982     -2.1937042880785897
H     -0.5267367762577684     -5.397224776032983     -2.1937042880785897
H     -0.5267367762577684     2.632775223967016     -2.1937042880785897
H     3.4767367762577686     -1.3822247760329835     -2.1937042880785897
H     -8.323263223742233     -1.3822247760329835     -2.1937042880785897
H     2.4232592384643064     9.412235209116288     2.193705084027483
H     0.5267407615356938     5.397235209116287     2.193705084027483
H     0.5267407615356938     -2.632764790883712     2.193705084027483
H     2.4232592384643064     -6.647764790883712     2.193705084027483
H     -5.373259238464307     -2.632764790883712     2.193705084027483
H     -5.373259238464307     5.397235209116287     2.193705084027483
H     8.323259238464306     1.3822352091162877     2.193705084027483
H     -3.476740761535694     1.3822352091162877     2.193705084027483
H     2.069008168232779     9.198576787348205     4.642530177164096
H     0.8809918317672212     5.183576787348206     4.642530177164096
H     0.8809918317672212     -2.8464232126517937     4.642530177164096
H     2.069008168232779     -6.861423212651793     4.642530177164096
H     -5.019008168232779     -2.8464232126517937     4.642530177164096
H     -5.019008168232779     5.183576787348206     4.642530177164096
H     7.969008168232779     1.1685767873482058     4.642530177164096
H     -3.8309918317672214     1.1685767873482058     4.642530177164096
H     0.048937735877673236     8.058246412732371     5.530313340218296
H     2.901062264122327     4.043246412732372     5.530313340218296
H     2.901062264122327     -3.986753587267628     5.530313340218296
H     0.048937735877673236     -8.001753587267627     5.530313340218296
H     -2.998937735877673     -3.986753587267628     5.530313340218296
H     -2.998937735877673     4.043246412732372     5.530313340218296
H     5.948937735877673     0.028246412732371825     5.530313340218296
H     -5.851062264122327     0.028246412732371825     5.530313340218296
H     -1.6351576368485852     7.085884880484184     3.989239611204613
H     4.585157636848585     3.0708848804841846     3.989239611204613
H     4.585157636848585     -4.959115119515815     3.989239611204613
H     -1.6351576368485852     -8.974115119515815     3.989239611204613
H     -1.314842363151415     -4.959115119515815     3.989239611204613
H     -1.314842363151415     3.0708848804841846     3.989239611204613
H     4.264842363151415     -0.9441151195158152     3.989239611204613
H     -7.535157636848585     -0.9441151195158152     3.989239611204613
H     -0.048932311065960375     8.001746125128046     -5.530312232923615
H     2.9989323110659605     3.986746125128046     -5.530312232923615
H     2.9989323110659605     -4.0432538748719535     -5.530312232923615
H     -0.048932311065960375     -8.058253874871953     -5.530312232923615
H     -2.90106768893404     -4.0432538748719535     -5.530312232923615
H     -2.90106768893404     3.986746125128046     -5.530312232923615
H     5.85106768893404     -0.028253874871953768     -5.530312232923615
H     -5.948932311065961     -0.028253874871953768     -5.530312232923615
