216
BTBT_9
S    1.6203193262720827    0.9333401805326346    -0.9655543417648225
S    -1.620321504598735    -0.9333388825699676    0.9655526072710489
C    0.7607010874676289    0.43204661397155997    -3.5964890672963397
C    -0.19901452334363057    -0.09708117976364095    -4.456605143989376
C    -1.3358730483939008    -0.7617409166445286    -3.9518894628529058
C    -1.5484008838449876    -0.8661903563930526    -2.58171320689255
C    1.548398109335089    0.866196593028477    2.5817133719708383
C    1.3358706775561753    0.7617432743645128    3.951889267098004
C    0.19901582998282433    0.09707763412375259    4.456605564507998
C    -0.7606973501029619    -0.43205502481048846    3.5964887592424986
C    -0.5418750743386082    -0.34671555743923627    2.213672213873291
C    0.5874862400967746    0.34629270790787875    1.6917199634307594
C    0.5677107081262889    0.30358960446563144    0.26293046084319327
C    -0.5677107915495075    -0.3035871418589736    -0.26293027984204415
C    -0.5874867399029438    -0.3462921765045876    -1.6917195197701054
C    0.5418798052269354    0.346711324999707    -2.213671057369623
H    1.6351619757370348    0.9441051054692121    -3.989241924895111
H    -2.069015814970823    -1.16856644084711    -4.6425298943736735
H    -2.423263223742232    -1.3822247760329835    -2.1937042880785897
H    2.4232592384643064    1.3822352091162877    2.193705084027483
H    2.069008168232779    1.1685767873482058    4.642530177164096
H    0.048937735877673236    0.028246412732371825    5.530313340218296
H    -1.6351576368485852    -0.9441151195158152    3.989239611204613
H    -0.048932311065960375    -0.028253874871953768    -5.530312232923615
S     1.6203193262720827     8.943340180532635     -0.9655543417648225
S     1.3146806737279173     4.938340180532634     -0.9655543417648225
S     1.3146806737279173     -3.0716598194673654     -0.9655543417648225
S     1.6203193262720827     -7.076659819467365     -0.9655543417648225
S     -4.555319326272083     -3.0716598194673654     -0.9655543417648225
S     -4.555319326272083     4.938340180532634     -0.9655543417648225
S     7.490319326272083     0.9333401805326346     -0.9655543417648225
S     -4.249680673727918     0.9333401805326346     -0.9655543417648225
S     -1.620321504598735     7.0766611174300325     0.9655526072710489
S     4.555321504598735     3.0716611174300326     0.9655526072710489
S     4.555321504598735     -4.938338882569967     0.9655526072710489
S     -1.620321504598735     -8.943338882569968     0.9655526072710489
S     -1.3146784954012651     -4.938338882569967     0.9655526072710489
S     -1.3146784954012651     3.0716611174300326     0.9655526072710489
S     4.249678495401265     -0.9333388825699676     0.9655526072710489
S     -7.490321504598735     -0.9333388825699676     0.9655526072710489
C     0.7607010874676289     8.44204661397156     -3.5964890672963397
C     2.1742989125323713     4.43704661397156     -3.5964890672963397
C     2.1742989125323713     -3.57295338602844     -3.5964890672963397
C     0.7607010874676289     -7.57795338602844     -3.5964890672963397
C     -3.695701087467629     -3.57295338602844     -3.5964890672963397
C     -3.695701087467629     4.43704661397156     -3.5964890672963397
C     6.630701087467629     0.43204661397155997     -3.5964890672963397
C     -5.109298912532371     0.43204661397155997     -3.5964890672963397
C     -0.19901452334363057     7.912918820236359     -4.456605143989376
C     3.1340145233436307     3.907918820236359     -4.456605143989376
C     3.1340145233436307     -4.1020811797636405     -4.456605143989376
C     -0.19901452334363057     -8.107081179763641     -4.456605143989376
C     -2.7359854766563694     -4.1020811797636405     -4.456605143989376
C     -2.7359854766563694     3.907918820236359     -4.456605143989376
C     5.670985476656369     -0.09708117976364095     -4.456605143989376
C     -6.069014523343631     -0.09708117976364095     -4.456605143989376
C     -1.3358730483939008     7.248259083355471     -3.9518894628529058
C     4.2708730483939     3.243259083355471     -3.9518894628529058
C     4.2708730483939     -4.766740916644529     -3.9518894628529058
C     -1.3358730483939008     -8.771740916644529     -3.9518894628529058
C     -1.5991269516060993     -4.766740916644529     -3.9518894628529058
C     -1.5991269516060993     3.243259083355471     -3.9518894628529058
C     4.534126951606099     -0.7617409166445286     -3.9518894628529058
C     -7.205873048393901     -0.7617409166445286     -3.9518894628529058
C     -1.5484008838449876     7.143809643606947     -2.58171320689255
C     4.483400883844988     3.1388096436069475     -2.58171320689255
C     4.483400883844988     -4.871190356393052     -2.58171320689255
C     -1.5484008838449876     -8.876190356393053     -2.58171320689255
C     -1.3865991161550124     -4.871190356393052     -2.58171320689255
C     -1.3865991161550124     3.1388096436069475     -2.58171320689255
C     4.321599116155013     -0.8661903563930526     -2.58171320689255
C     -7.4184008838449875     -0.8661903563930526     -2.58171320689255
C     1.548398109335089     8.876196593028476     2.5817133719708383
C     1.3866018906649111     4.871196593028477     2.5817133719708383
C     1.3866018906649111     -3.138803406971523     2.5817133719708383
C     1.548398109335089     -7.143803406971523     2.5817133719708383
C     -4.483398109335089     -3.138803406971523     2.5817133719708383
C     -4.483398109335089     4.871196593028477     2.5817133719708383
C     7.418398109335089     0.866196593028477     2.5817133719708383
C     -4.321601890664911     0.866196593028477     2.5817133719708383
C     1.3358706775561753     8.771743274364512     3.951889267098004
C     1.5991293224438248     4.766743274364512     3.951889267098004
C     1.5991293224438248     -3.243256725635487     3.951889267098004
C     1.3358706775561753     -7.248256725635487     3.951889267098004
C     -4.270870677556175     -3.243256725635487     3.951889267098004
C     -4.270870677556175     4.766743274364512     3.951889267098004
C     7.205870677556176     0.7617432743645128     3.951889267098004
C     -4.534129322443825     0.7617432743645128     3.951889267098004
C     0.19901582998282433     8.107077634123753     4.456605564507998
C     2.7359841700171756     4.102077634123752     4.456605564507998
C     2.7359841700171756     -3.907922365876247     4.456605564507998
C     0.19901582998282433     -7.9129223658762475     4.456605564507998
C     -3.1340158299828245     -3.907922365876247     4.456605564507998
C     -3.1340158299828245     4.102077634123752     4.456605564507998
C     6.069015829982824     0.09707763412375259     4.456605564507998
C     -5.670984170017176     0.09707763412375259     4.456605564507998
C     -0.7606973501029619     7.577944975189511     3.5964887592424986
C     3.6956973501029617     3.5729449751895115     3.5964887592424986
C     3.6956973501029617     -4.437055024810489     3.5964887592424986
C     -0.7606973501029619     -8.442055024810488     3.5964887592424986
C     -2.1743026498970384     -4.437055024810489     3.5964887592424986
C     -2.1743026498970384     3.5729449751895115     3.5964887592424986
C     5.109302649897038     -0.43205502481048846     3.5964887592424986
C     -6.630697350102962     -0.43205502481048846     3.5964887592424986
C     -0.5418750743386082     7.663284442560763     2.213672213873291
C     3.4768750743386083     3.6582844425607637     2.213672213873291
C     3.4768750743386083     -4.3517155574392365     2.213672213873291
C     -0.5418750743386082     -8.356715557439236     2.213672213873291
C     -2.393124925661392     -4.3517155574392365     2.213672213873291
C     -2.393124925661392     3.6582844425607637     2.213672213873291
C     5.328124925661392     -0.34671555743923627     2.213672213873291
C     -6.411875074338608     -0.34671555743923627     2.213672213873291
C     0.5874862400967746     8.356292707907878     1.6917199634307594
C     2.3475137599032254     4.351292707907879     1.6917199634307594
C     2.3475137599032254     -3.6587072920921213     1.6917199634307594
C     0.5874862400967746     -7.663707292092121     1.6917199634307594
C     -3.5224862400967747     -3.6587072920921213     1.6917199634307594
C     -3.5224862400967747     4.351292707907879     1.6917199634307594
C     6.457486240096775     0.34629270790787875     1.6917199634307594
C     -5.2825137599032255     0.34629270790787875     1.6917199634307594
C     0.5677107081262889     8.313589604465632     0.26293046084319327
C     2.3672892918737114     4.308589604465631     0.26293046084319327
C     2.3672892918737114     -3.7014103955343685     0.26293046084319327
C     0.5677107081262889     -7.706410395534368     0.26293046084319327
C     -3.5027107081262887     -3.7014103955343685     0.26293046084319327
C     -3.5027107081262887     4.308589604465631     0.26293046084319327
C     6.437710708126289     0.30358960446563144     0.26293046084319327
C     -5.302289291873711     0.30358960446563144     0.26293046084319327
C     -0.5677107915495075     7.706412858141026     -0.26293027984204415
C     3.5027107915495077     3.701412858141026     -0.26293027984204415
C     3.5027107915495077     -4.308587141858974     -0.26293027984204415
C     -0.5677107915495075     -8.313587141858973     -0.26293027984204415
C     -2.3672892084504924     -4.308587141858974     -0.26293027984204415
C     -2.3672892084504924     3.701412858141026     -0.26293027984204415
C     5.3022892084504925     -0.3035871418589736     -0.26293027984204415
C     -6.437710791549508     -0.3035871418589736     -0.26293027984204415
C     -0.5874867399029438     7.663707823495412     -1.6917195197701054
C     3.522486739902944     3.6587078234954125     -1.6917195197701054
C     3.522486739902944     -4.351292176504588     -1.6917195197701054
C     -0.5874867399029438     -8.356292176504587     -1.6917195197701054
C     -2.347513260097056     -4.351292176504588     -1.6917195197701054
C     -2.347513260097056     3.6587078234954125     -1.6917195197701054
C     5.282513260097057     -0.3462921765045876     -1.6917195197701054
C     -6.457486739902944     -0.3462921765045876     -1.6917195197701054
C     0.5418798052269354     8.356711324999706     -2.213671057369623
C     2.393120194773065     4.351711324999707     -2.213671057369623
C     2.393120194773065     -3.6582886750002928     -2.213671057369623
C     0.5418798052269354     -7.663288675000293     -2.213671057369623
C     -3.476879805226935     -3.6582886750002928     -2.213671057369623
C     -3.476879805226935     4.351711324999707     -2.213671057369623
C     6.411879805226936     0.346711324999707     -2.213671057369623
C     -5.3281201947730645     0.346711324999707     -2.213671057369623
H     1.6351619757370348     8.954105105469212     -3.989241924895111
H     1.2998380242629652     4.949105105469212     -3.989241924895111
H     1.2998380242629652     -3.060894894530788     -3.989241924895111
H     1.6351619757370348     -7.065894894530787     -3.989241924895111
H     -4.570161975737035     -3.060894894530788     -3.989241924895111
H     -4.570161975737035     4.949105105469212     -3.989241924895111
H     7.505161975737035     0.9441051054692121     -3.989241924895111
H     -4.234838024262965     0.9441051054692121     -3.989241924895111
H     -2.069015814970823     6.84143355915289     -4.6425298943736735
H     5.004015814970823     2.8364335591528897     -4.6425298943736735
H     5.004015814970823     -5.17356644084711     -4.6425298943736735
H     -2.069015814970823     -9.17856644084711     -4.6425298943736735
H     -0.865984185029177     -5.17356644084711     -4.6425298943736735
H     -0.865984185029177     2.8364335591528897     -4.6425298943736735
H     3.800984185029177     -1.16856644084711     -4.6425298943736735
H     -7.939015814970823     -1.16856644084711     -4.6425298943736735
H     -2.423263223742232     6.627775223967016     -2.1937042880785897
H     5.358263223742232     2.6227752239670163     -2.1937042880785897
H     5.358263223742232     -5.387224776032983     -2.1937042880785897
H     -2.423263223742232     -9.392224776032982     -2.1937042880785897
H     -0.5117367762577683     -5.387224776032983     -2.1937042880785897
H     -0.5117367762577683     2.6227752239670163     -2.1937042880785897
H     3.4467367762577683     -1.3822247760329835     -2.1937042880785897
H     -8.293263223742231     -1.3822247760329835     -2.1937042880785897
H     2.4232592384643064     9.392235209116288     2.193705084027483
H     0.5117407615356937     5.387235209116287     2.193705084027483
H     0.5117407615356937     -2.6227647908837124     2.193705084027483
H     2.4232592384643064     -6.627764790883712     2.193705084027483
H     -5.358259238464306     -2.6227647908837124     2.193705084027483
H     -5.358259238464306     5.387235209116287     2.193705084027483
H     8.293259238464307     1.3822352091162877     2.193705084027483
H     -3.4467407615356938     1.3822352091162877     2.193705084027483
H     2.069008168232779     9.178576787348206     4.642530177164096
H     0.865991831767221     5.173576787348206     4.642530177164096
H     0.865991831767221     -2.836423212651794     4.642530177164096
H     2.069008168232779     -6.841423212651794     4.642530177164096
H     -5.0040081682327795     -2.836423212651794     4.642530177164096
H     -5.0040081682327795     5.173576787348206     4.642530177164096
H     7.939008168232779     1.1685767873482058     4.642530177164096
H     -3.800991831767221     1.1685767873482058     4.642530177164096
H     0.048937735877673236     8.038246412732372     5.530313340218296
H     2.886062264122327     4.033246412732372     5.530313340218296
H     2.886062264122327     -3.9767535872676283     5.530313340218296
H     0.048937735877673236     -7.981753587267628     5.530313340218296
H     -2.983937735877673     -3.9767535872676283     5.530313340218296
H     -2.983937735877673     4.033246412732372     5.530313340218296
H     5.918937735877673     0.028246412732371825     5.530313340218296
H     -5.821062264122327     0.028246412732371825     5.530313340218296
H     -1.6351576368485852     7.065884880484185     3.989239611204613
H     4.5701576368485854     3.060884880484185     3.989239611204613
H     4.5701576368485854     -4.949115119515815     3.989239611204613
H     -1.6351576368485852     -8.954115119515816     3.989239611204613
H     -1.2998423631514149     -4.949115119515815     3.989239611204613
H     -1.2998423631514149     3.060884880484185     3.989239611204613
H     4.234842363151415     -0.9441151195158152     3.989239611204613
H     -7.505157636848585     -0.9441151195158152     3.989239611204613
H     -0.048932311065960375     7.981746125128046     -5.530312232923615
H     2.9839323110659604     3.976746125128046     -5.530312232923615
H     2.9839323110659604     -4.033253874871954     -5.530312232923615
H     -0.048932311065960375     -8.038253874871954     -5.530312232923615
H     -2.8860676889340398     -4.033253874871954     -5.530312232923615
H     -2.8860676889340398     3.976746125128046     -5.530312232923615
H     5.82106768893404     -0.028253874871953768     -5.530312232923615
H     -5.91893231106596     -0.028253874871953768     -5.530312232923615
